* Behavioural source subcircuit

.subckt source vh vl hi lo
bhigh vh vl v={if(v(hi, lo) > 0.5, 5, 0)} smoothbsrc=1
.ends
